&share
 wrf_core = 'ARW',
 max_dom = 1,
 start_date = '2021-04-06_00:00:00',
 end_date   = '2021-04-07_00:00:00',
 interval_seconds = 10800
 io_form_geogrid = 2,
/

&geogrid
 parent_id         = 1,
 parent_grid_ratio = 1,
 i_parent_start    = 1,
 j_parent_start    = 1,
 e_we          = 147,
 e_sn          = 103,
 !
 !!!!!!!!!!!!!!!!!!!!!!!!!!!! IMPORTANT NOTE !!!!!!!!!!!!!!!!!!!!!!!!!!!!
 ! The default datasets used to produce the MAXSNOALB and ALBEDO12M
 ! fields have changed in WPS v4.0. These fields are now interpolated
 ! from MODIS-based datasets.
 !
 ! To match the output given by the default namelist.wps in WPS v3.9.1,
 ! the following setting for geog_data_res may be used:
 !
 ! geog_data_res = 'maxsnowalb_ncep+albedo_ncep+default', 'maxsnowalb_ncep+albedo_ncep+default', 
 !
 !!!!!!!!!!!!!!!!!!!!!!!!!!!! IMPORTANT NOTE !!!!!!!!!!!!!!!!!!!!!!!!!!!!
 !
 geog_data_res = 'default','default','default','default','default'
 dx = 36000,
 dy = 36000,
 map_proj = 'lambert',
 ref_lat   =  40,
 ref_lon   = -97,
 truelat1  =  33,
 truelat2  =  45,
 stand_lon = -97,
 geog_data_path = '/storage/home/hcoda1/7/zli867/p-ar70-0/model/WRF-Chem/WPS_GEOG'
/

&ungrib
 out_format = 'WPS',
 prefix = 'FILE',
/

&metgrid
 fg_name = 'FILE'
 io_form_metgrid = 2,
/
